test/data/cigre.json
{
    "ac": false,
    "baseMVA": 1,
    "branch": {
        "1": {
            "angmax": 1.0471975511965976,
            "angmin": -1.0471975511965976,
            "b_fr": 0.026786049475940484,
            "b_to": 0.026786049475940484,
            "br_r": 0.00353205,
            "br_status": 1,
            "br_x": 0.005047799999999999,
            "f_bus": 2,
            "g_fr": -0.0,
            "g_to": -0.0,
            "index": 1,
            "rate_a": 3.013768405169846,
            "rate_b": 250.0,
            "rate_c": 250.0,
            "shift": 0.0,
            "t_bus": 3,
            "tap": 1.0,
            "transformer": false
        },
        "10": {
            "angmax": 1.0471975511965976,
            "angmin": -1.0471975511965976,
            "b_fr": 0.012348178836426464,
            "b_to": 0.012348178836426464,
            "br_r": 0.00162825,
            "br_status": 1,
            "br_x": 0.002327,
            "f_bus": 4,
            "g_fr": -0.0,
            "g_to": -0.0,
            "index": 10,
            "rate_a": 3.013768405169846,
            "rate_b": 250.0,
            "rate_c": 250.0,
            "shift": 0.0,
            "t_bus": 9,
            "tap": 1.0,
            "transformer": false
        },
        "11": {
            "angmax": 1.0471975511965976,
            "angmin": -1.0471975511965976,
            "b_fr": 0.003102216126048443,
            "b_to": 0.003102216126048443,
            "br_r": 0.00623475,
            "br_status": 1,
            "br_x": 0.004474349999999999,
            "f_bus": 13,
            "g_fr": -0.0,
            "g_to": -0.0,
            "index": 11,
            "rate_a": 4.052998889711172,
            "rate_b": 250.0,
            "rate_c": 250.0,
            "shift": 0.0,
            "t_bus": 14,
            "tap": 1.0,
            "transformer": false
        },
        "12": {
            "angmax": 1.0471975511965976,
            "angmin": -1.0471975511965976,
            "b_fr": 0.0018968560770725657,
            "b_to": 0.0018968560770725657,
            "br_r": 0.0038122500000000005,
            "br_status": 1,
            "br_x": 0.00273585,
            "f_bus": 14,
            "g_fr": -0.0,
            "g_to": -0.0,
            "index": 12,
            "rate_a": 4.052998889711172,
            "rate_b": 250.0,
            "rate_c": 250.0,
            "shift": 0.0,
            "t_bus": 15,
            "tap": 1.0,
            "transformer": false
        },
        "13": {
            "angmax": 1.0471975511965976,
            "angmin": -1.0471975511965976,
            "b_fr": 0.002279663785186424,
            "b_to": 0.002279663785186424,
            "br_r": 0.0003006,
            "br_status": 1,
            "br_x": 0.0004296,
            "f_bus": 7,
            "g_fr": -0.0,
            "g_to": -0.0,
            "index": 13,
            "rate_a": 3.013768405169846,
            "rate_b": 250.0,
            "rate_c": 250.0,
            "shift": 0.0,
            "t_bus": 16,
            "tap": 1.0,
            "transformer": false
        },
        "14": {
            "angmax": 1.0471975511965976,
            "angmin": -1.0471975511965976,
            "b_fr": 0.004654313561422283,
            "b_to": 0.004654313561422283,
            "br_r": 0.000613725,
            "br_status": 1,
            "br_x": 0.0008771,
            "f_bus": 12,
            "g_fr": -0.0,
            "g_to": -0.0,
            "index": 14,
            "rate_a": 3.013768405169846,
            "rate_b": 250.0,
            "rate_c": 250.0,
            "shift": 0.0,
            "t_bus": 17,
            "tap": 1.0,
            "transformer": false
        },
        "15": {
            "angmax": 1.0471975511965976,
            "angmin": -1.0471975511965976,
            "b_fr": 0.0012688000515535555,
            "b_to": 0.0012688000515535555,
            "br_r": 0.00255,
            "br_status": 1,
            "br_x": 0.00183,
            "f_bus": 15,
            "g_fr": -0.0,
            "g_to": -0.0,
            "index": 15,
            "rate_a": 4.052998889711172,
            "rate_b": 250.0,
            "rate_c": 250.0,
            "shift": 0.0,
            "t_bus": 18,
            "tap": 1.0,
            "transformer": false
        },
        "16": {
            "angmax": 1.0471975511965976,
            "angmin": -1.0471975511965976,
            "b_fr": 0.0,
            "b_to": 0.0,
            "br_r": 6.4e-05,
            "br_status": 1,
            "br_x": 0.004800001352414809,
            "f_bus": 1,
            "g_fr": -0.0,
            "g_to": -0.0,
            "index": 16,
            "rate_a": 250.0,
            "rate_b": 250.0,
            "rate_c": 250.0,
            "shift": 0.5235987755982988,
            "t_bus": 2,
            "tap": 1.0,
            "transformer": true
        },
        "17": {
            "angmax": 1.0471975511965976,
            "angmin": -1.0471975511965976,
            "b_fr": 0.0,
            "b_to": 0.0,
            "br_r": 6.4e-05,
            "br_status": 1,
            "br_x": 0.004800001352414809,
            "f_bus": 1,
            "g_fr": -0.0,
            "g_to": -0.0,
            "index": 17,
            "rate_a": 250.0,
            "rate_b": 250.0,
            "rate_c": 250.0,
            "shift": 0.5235987755982988,
            "t_bus": 13,
            "tap": 1.0,
            "transformer": true
        },
        "2": {
            "angmax": 1.0471975511965976,
            "angmin": -1.0471975511965976,
            "b_fr": 0.04198380804384998,
            "b_to": 0.04198380804384998,
            "br_r": 0.00553605,
            "br_status": 1,
            "br_x": 0.0079118,
            "f_bus": 3,
            "g_fr": -0.0,
            "g_to": -0.0,
            "index": 2,
            "rate_a": 3.013768405169846,
            "rate_b": 250.0,
            "rate_c": 250.0,
            "shift": 0.0,
            "t_bus": 4,
            "tap": 1.0,
            "transformer": false
        },
        "3": {
            "angmax": 1.0471975511965976,
            "angmin": -1.0471975511965976,
            "b_fr": 0.005794145454015495,
            "b_to": 0.005794145454015495,
            "br_r": 0.000764025,
            "br_status": 1,
            "br_x": 0.0010919,
            "f_bus": 4,
            "g_fr": -0.0,
            "g_to": -0.0,
            "index": 3,
            "rate_a": 3.013768405169846,
            "rate_b": 250.0,
            "rate_c": 250.0,
            "shift": 0.0,
            "t_bus": 5,
            "tap": 1.0,
            "transformer": false
        },
        "4": {
            "angmax": 1.0471975511965976,
            "angmin": -1.0471975511965976,
            "b_fr": 0.005319215498768324,
            "b_to": 0.005319215498768324,
            "br_r": 0.0007014,
            "br_status": 1,
            "br_x": 0.0010024,
            "f_bus": 5,
            "g_fr": -0.0,
            "g_to": -0.0,
            "index": 4,
            "rate_a": 3.013768405169846,
            "rate_b": 250.0,
            "rate_c": 250.0,
            "shift": 0.0,
            "t_bus": 6,
            "tap": 1.0,
            "transformer": false
        },
        "5": {
            "angmax": 1.0471975511965976,
            "angmin": -1.0471975511965976,
            "b_fr": 0.014627842621612888,
            "b_to": 0.014627842621612888,
            "br_r": 0.00192885,
            "br_status": 1,
            "br_x": 0.0027566,
            "f_bus": 6,
            "g_fr": -0.0,
            "g_to": -0.0,
            "index": 5,
            "rate_a": 3.013768405169846,
            "rate_b": 250.0,
            "rate_c": 250.0,
            "shift": 0.0,
            "t_bus": 7,
            "tap": 1.0,
            "transformer": false
        },
        "6": {
            "angmax": 1.0471975511965976,
            "angmin": -1.0471975511965976,
            "b_fr": 0.015862660505255536,
            "b_to": 0.015862660505255536,
            "br_r": 0.002091675,
            "br_status": 1,
            "br_x": 0.0029893,
            "f_bus": 8,
            "g_fr": -0.0,
            "g_to": -0.0,
            "index": 6,
            "rate_a": 3.013768405169846,
            "rate_b": 250.0,
            "rate_c": 250.0,
            "shift": 0.0,
            "t_bus": 9,
            "tap": 1.0,
            "transformer": false
        },
        "7": {
            "angmax": 1.0471975511965976,
            "angmin": -1.0471975511965976,
            "b_fr": 0.003039551713581899,
            "b_to": 0.003039551713581899,
            "br_r": 0.0004008,
            "br_status": 1,
            "br_x": 0.0005727999999999999,
            "f_bus": 9,
            "g_fr": -0.0,
            "g_to": -0.0,
            "index": 7,
            "rate_a": 3.013768405169846,
            "rate_b": 250.0,
            "rate_c": 250.0,
            "shift": 0.0,
            "t_bus": 10,
            "tap": 1.0,
            "transformer": false
        },
        "8": {
            "angmax": 1.0471975511965976,
            "angmin": -1.0471975511965976,
            "b_fr": 0.007313921310806444,
            "b_to": 0.007313921310806444,
            "br_r": 0.000964425,
            "br_status": 1,
            "br_x": 0.0013783,
            "f_bus": 10,
            "g_fr": -0.0,
            "g_to": -0.0,
            "index": 8,
            "rate_a": 3.013768405169846,
            "rate_b": 250.0,
            "rate_c": 250.0,
            "shift": 0.0,
            "t_bus": 11,
            "tap": 1.0,
            "transformer": false
        },
        "9": {
            "angmax": 1.0471975511965976,
            "angmin": -1.0471975511965976,
            "b_fr": 0.0031345377046313335,
            "b_to": 0.0031345377046313335,
            "br_r": 0.00041332500000000003,
            "br_status": 1,
            "br_x": 0.0005907,
            "f_bus": 11,
            "g_fr": -0.0,
            "g_to": -0.0,
            "index": 9,
            "rate_a": 3.013768405169846,
            "rate_b": 250.0,
            "rate_c": 250.0,
            "shift": 0.0,
            "t_bus": 12,
            "tap": 1.0,
            "transformer": false
        }
    },
    "bus": {
        "1": {
            "base_kv": 110.0,
            "bus_i": 1,
            "bus_type": 3,
            "index": 1,
            "va": 0.0,
            "vm": 1.03,
            "vmax": 1.03000001,
            "vmin": 1.02999999,
            "zone": 1
        },
        "10": {
            "base_kv": 20.0,
            "bus_i": 10,
            "bus_type": 1,
            "index": 10,
            "va": 0.0,
            "vm": 1.0,
            "vmax": 1.05,
            "vmin": 0.95,
            "zone": 1
        },
        "11": {
            "base_kv": 20.0,
            "bus_i": 11,
            "bus_type": 1,
            "index": 11,
            "va": 0.0,
            "vm": 1.0,
            "vmax": 1.05,
            "vmin": 0.95,
            "zone": 1
        },
        "12": {
            "base_kv": 20.0,
            "bus_i": 12,
            "bus_type": 1,
            "index": 12,
            "va": 0.0,
            "vm": 1.0,
            "vmax": 1.05,
            "vmin": 0.95,
            "zone": 1
        },
        "13": {
            "base_kv": 20.0,
            "bus_i": 13,
            "bus_type": 1,
            "index": 13,
            "va": 0.0,
            "vm": 1.0,
            "vmax": 1.05,
            "vmin": 0.95,
            "zone": 1
        },
        "14": {
            "base_kv": 20.0,
            "bus_i": 14,
            "bus_type": 1,
            "index": 14,
            "va": 0.0,
            "vm": 1.0,
            "vmax": 1.05,
            "vmin": 0.95,
            "zone": 1
        },
        "15": {
            "base_kv": 20.0,
            "bus_i": 15,
            "bus_type": 1,
            "index": 15,
            "va": 0.0,
            "vm": 1.0,
            "vmax": 1.05,
            "vmin": 0.95,
            "zone": 1
        },
        "16": {
            "base_kv": 20.0,
            "bus_i": 16,
            "bus_type": 1,
            "index": 16,
            "va": 0.0,
            "vm": 1.0,
            "vmax": 1.1,
            "vmin": 0.9,
            "zone": 1
        },
        "17": {
            "base_kv": 20.0,
            "bus_i": 17,
            "bus_type": 1,
            "index": 17,
            "va": 0.0,
            "vm": 1.0,
            "vmax": 1.1,
            "vmin": 0.9,
            "zone": 1
        },
        "18": {
            "base_kv": 20.0,
            "bus_i": 18,
            "bus_type": 1,
            "index": 18,
            "va": 0.0,
            "vm": 1.0,
            "vmax": 1.1,
            "vmin": 0.9,
            "zone": 1
        },
        "2": {
            "base_kv": 20.0,
            "bus_i": 2,
            "bus_type": 1,
            "index": 2,
            "va": 0.0,
            "vm": 1.0,
            "vmax": 1.05,
            "vmin": 0.95,
            "zone": 1
        },
        "3": {
            "base_kv": 20.0,
            "bus_i": 3,
            "bus_type": 1,
            "index": 3,
            "va": 0.0,
            "vm": 1.0,
            "vmax": 1.05,
            "vmin": 0.95,
            "zone": 1
        },
        "4": {
            "base_kv": 20.0,
            "bus_i": 4,
            "bus_type": 1,
            "index": 4,
            "va": 0.0,
            "vm": 1.0,
            "vmax": 1.05,
            "vmin": 0.95,
            "zone": 1
        },
        "5": {
            "base_kv": 20.0,
            "bus_i": 5,
            "bus_type": 1,
            "index": 5,
            "va": 0.0,
            "vm": 1.0,
            "vmax": 1.05,
            "vmin": 0.95,
            "zone": 1
        },
        "6": {
            "base_kv": 20.0,
            "bus_i": 6,
            "bus_type": 1,
            "index": 6,
            "va": 0.0,
            "vm": 1.0,
            "vmax": 1.05,
            "vmin": 0.95,
            "zone": 1
        },
        "7": {
            "base_kv": 20.0,
            "bus_i": 7,
            "bus_type": 1,
            "index": 7,
            "va": 0.0,
            "vm": 1.0,
            "vmax": 1.05,
            "vmin": 0.95,
            "zone": 1
        },
        "8": {
            "base_kv": 20.0,
            "bus_i": 8,
            "bus_type": 1,
            "index": 8,
            "va": 0.0,
            "vm": 1.0,
            "vmax": 1.05,
            "vmin": 0.95,
            "zone": 1
        },
        "9": {
            "base_kv": 20.0,
            "bus_i": 9,
            "bus_type": 1,
            "index": 9,
            "va": 0.0,
            "vm": 1.0,
            "vmax": 1.05,
            "vmin": 0.95,
            "zone": 1
        }
    },
    "correct_pm_network_data": true,
    "dcline": {},
    "gen": {
        "1": {
            "cost": [
                0,
                1.0,
                0.0
            ],
            "gen_bus": 1,
            "gen_status": 1,
            "index": 1,
            "model": 2,
            "ncost": 3,
            "pg": 0.0,
            "pmax": 100.0,
            "pmin": -100.0,
            "qg": 0.0,
            "qmax": 100.0,
            "qmin": -100.0,
            "shutdown": 0.0,
            "startup": 0.0,
            "vg": 1.03
        }
    },
    "load": {
        "1": {
            "index": 1,
            "load_bus": 2,
            "pd": 14.994,
            "qd": 3.0446615575462643,
            "status": 1
        },
        "10": {
            "index": 10,
            "load_bus": 15,
            "pd": 0.20854999999999999,
            "qd": 0.052267556858915876,
            "status": 1
        },
        "11": {
            "index": 11,
            "load_bus": 2,
            "pd": 4.845,
            "qd": 1.5924744895915917,
            "status": 1
        },
        "12": {
            "index": 12,
            "load_bus": 4,
            "pd": 0.22525,
            "qd": 0.13959741222529884,
            "status": 1
        },
        "13": {
            "index": 13,
            "load_bus": 8,
            "pd": 0.0765,
            "qd": 0.04741044188783732,
            "status": 1
        },
        "14": {
            "index": 14,
            "load_bus": 10,
            "pd": 0.57375,
            "qd": 0.35557831415878005,
            "status": 1
        },
        "15": {
            "index": 15,
            "load_bus": 11,
            "pd": 0.068,
            "qd": 0.04214261501141095,
            "status": 1
        },
        "16": {
            "index": 16,
            "load_bus": 13,
            "pd": 5.016,
            "qd": 1.6486794715771778,
            "status": 1
        },
        "17": {
            "index": 17,
            "load_bus": 14,
            "pd": 0.034,
            "qd": 0.021071307505705475,
            "status": 1
        },
        "18": {
            "index": 18,
            "load_bus": 15,
            "pd": 0.3315,
            "qd": 0.20544524818062843,
            "status": 1
        },
        "2": {
            "index": 2,
            "load_bus": 4,
            "pd": 0.27645,
            "qd": 0.06928490095251642,
            "status": 1
        },
        "3": {
            "index": 3,
            "load_bus": 5,
            "pd": 0.43165,
            "qd": 0.10818168745217475,
            "status": 1
        },
        "4": {
            "index": 4,
            "load_bus": 6,
            "pd": 0.7275,
            "qd": 0.182328686717148,
            "status": 1
        },
        "5": {
            "index": 5,
            "load_bus": 7,
            "pd": 0.5480499999999999,
            "qd": 0.1373542773269184,
            "status": 1
        },
        "6": {
            "index": 6,
            "load_bus": 9,
            "pd": 0.58685,
            "qd": 0.147078473951833,
            "status": 1
        },
        "7": {
            "index": 7,
            "load_bus": 11,
            "pd": 0.4753,
            "qd": 0.11912140865520342,
            "status": 1
        },
        "8": {
            "index": 8,
            "load_bus": 12,
            "pd": 0.32980000000000004,
            "qd": 0.08265567131177387,
            "status": 1
        },
        "9": {
            "index": 9,
            "load_bus": 13,
            "pd": 14.994,
            "qd": 3.0446615575462643,
            "status": 1
        }
    },
    "name": "",
    "ne_branch": {
        "1": {
            "angmax": 1.0471975511965976,
            "angmin": -1.0471975511965976,
            "b_fr": 0.026786049475940484,
            "b_to": 0.026786049475940484,
            "br_r": 0.00353205,
            "br_status": 1,
            "br_x": 0.005047799999999999,
            "construction_cost": 1.0,
            "f_bus": 2,
            "g_fr": -0.0,
            "g_to": -0.0,
            "index": 1,
            "rate_a": 3.013768405169846,
            "rate_b": 250.0,
            "rate_c": 250.0,
            "shift": 0.0,
            "t_bus": 3,
            "tap": 1.0,
            "transformer": false
        },
        "10": {
            "angmax": 1.0471975511965976,
            "angmin": -1.0471975511965976,
            "b_fr": 0.012348178836426464,
            "b_to": 0.012348178836426464,
            "br_r": 0.00162825,
            "br_status": 1,
            "br_x": 0.002327,
            "construction_cost": 1.0,
            "f_bus": 4,
            "g_fr": -0.0,
            "g_to": -0.0,
            "index": 10,
            "rate_a": 3.013768405169846,
            "rate_b": 250.0,
            "rate_c": 250.0,
            "shift": 0.0,
            "t_bus": 9,
            "tap": 1.0,
            "transformer": false
        },
        "11": {
            "angmax": 1.0471975511965976,
            "angmin": -1.0471975511965976,
            "b_fr": 0.003102216126048443,
            "b_to": 0.003102216126048443,
            "br_r": 0.00623475,
            "br_status": 1,
            "br_x": 0.004474349999999999,
            "construction_cost": 1.0,
            "f_bus": 13,
            "g_fr": -0.0,
            "g_to": -0.0,
            "index": 11,
            "rate_a": 4.052998889711172,
            "rate_b": 250.0,
            "rate_c": 250.0,
            "shift": 0.0,
            "t_bus": 14,
            "tap": 1.0,
            "transformer": false
        },
        "12": {
            "angmax": 1.0471975511965976,
            "angmin": -1.0471975511965976,
            "b_fr": 0.0018968560770725657,
            "b_to": 0.0018968560770725657,
            "br_r": 0.0038122500000000005,
            "br_status": 1,
            "br_x": 0.00273585,
            "construction_cost": 1.0,
            "f_bus": 14,
            "g_fr": -0.0,
            "g_to": -0.0,
            "index": 12,
            "rate_a": 4.052998889711172,
            "rate_b": 250.0,
            "rate_c": 250.0,
            "shift": 0.0,
            "t_bus": 15,
            "tap": 1.0,
            "transformer": false
        },
        "2": {
            "angmax": 1.0471975511965976,
            "angmin": -1.0471975511965976,
            "b_fr": 0.04198380804384998,
            "b_to": 0.04198380804384998,
            "br_r": 0.00553605,
            "br_status": 1,
            "br_x": 0.0079118,
            "construction_cost": 1.0,
            "f_bus": 3,
            "g_fr": -0.0,
            "g_to": -0.0,
            "index": 2,
            "rate_a": 3.013768405169846,
            "rate_b": 250.0,
            "rate_c": 250.0,
            "shift": 0.0,
            "t_bus": 4,
            "tap": 1.0,
            "transformer": false
        },
        "3": {
            "angmax": 1.0471975511965976,
            "angmin": -1.0471975511965976,
            "b_fr": 0.005794145454015495,
            "b_to": 0.005794145454015495,
            "br_r": 0.000764025,
            "br_status": 1,
            "br_x": 0.0010919,
            "construction_cost": 1.0,
            "f_bus": 4,
            "g_fr": -0.0,
            "g_to": -0.0,
            "index": 3,
            "rate_a": 3.013768405169846,
            "rate_b": 250.0,
            "rate_c": 250.0,
            "shift": 0.0,
            "t_bus": 5,
            "tap": 1.0,
            "transformer": false
        },
        "4": {
            "angmax": 1.0471975511965976,
            "angmin": -1.0471975511965976,
            "b_fr": 0.005319215498768324,
            "b_to": 0.005319215498768324,
            "br_r": 0.0007014,
            "br_status": 1,
            "br_x": 0.0010024,
            "construction_cost": 1.0,
            "f_bus": 5,
            "g_fr": -0.0,
            "g_to": -0.0,
            "index": 4,
            "rate_a": 3.013768405169846,
            "rate_b": 250.0,
            "rate_c": 250.0,
            "shift": 0.0,
            "t_bus": 6,
            "tap": 1.0,
            "transformer": false
        },
        "5": {
            "angmax": 1.0471975511965976,
            "angmin": -1.0471975511965976,
            "b_fr": 0.014627842621612888,
            "b_to": 0.014627842621612888,
            "br_r": 0.00192885,
            "br_status": 1,
            "br_x": 0.0027566,
            "construction_cost": 1.0,
            "f_bus": 6,
            "g_fr": -0.0,
            "g_to": -0.0,
            "index": 5,
            "rate_a": 3.013768405169846,
            "rate_b": 250.0,
            "rate_c": 250.0,
            "shift": 0.0,
            "t_bus": 7,
            "tap": 1.0,
            "transformer": false
        },
        "6": {
            "angmax": 1.0471975511965976,
            "angmin": -1.0471975511965976,
            "b_fr": 0.015862660505255536,
            "b_to": 0.015862660505255536,
            "br_r": 0.002091675,
            "br_status": 1,
            "br_x": 0.0029893,
            "construction_cost": 1.0,
            "f_bus": 8,
            "g_fr": -0.0,
            "g_to": -0.0,
            "index": 6,
            "rate_a": 3.013768405169846,
            "rate_b": 250.0,
            "rate_c": 250.0,
            "shift": 0.0,
            "t_bus": 9,
            "tap": 1.0,
            "transformer": false
        },
        "7": {
            "angmax": 1.0471975511965976,
            "angmin": -1.0471975511965976,
            "b_fr": 0.003039551713581899,
            "b_to": 0.003039551713581899,
            "br_r": 0.0004008,
            "br_status": 1,
            "br_x": 0.0005727999999999999,
            "construction_cost": 1.0,
            "f_bus": 9,
            "g_fr": -0.0,
            "g_to": -0.0,
            "index": 7,
            "rate_a": 3.013768405169846,
            "rate_b": 250.0,
            "rate_c": 250.0,
            "shift": 0.0,
            "t_bus": 10,
            "tap": 1.0,
            "transformer": false
        },
        "8": {
            "angmax": 1.0471975511965976,
            "angmin": -1.0471975511965976,
            "b_fr": 0.007313921310806444,
            "b_to": 0.007313921310806444,
            "br_r": 0.000964425,
            "br_status": 1,
            "br_x": 0.0013783,
            "construction_cost": 1.0,
            "f_bus": 10,
            "g_fr": -0.0,
            "g_to": -0.0,
            "index": 8,
            "rate_a": 3.013768405169846,
            "rate_b": 250.0,
            "rate_c": 250.0,
            "shift": 0.0,
            "t_bus": 11,
            "tap": 1.0,
            "transformer": false
        },
        "9": {
            "angmax": 1.0471975511965976,
            "angmin": -1.0471975511965976,
            "b_fr": 0.0031345377046313335,
            "b_to": 0.0031345377046313335,
            "br_r": 0.00041332500000000003,
            "br_status": 1,
            "br_x": 0.0005907,
            "construction_cost": 1.0,
            "f_bus": 11,
            "g_fr": -0.0,
            "g_to": -0.0,
            "index": 9,
            "rate_a": 3.013768405169846,
            "rate_b": 250.0,
            "rate_c": 250.0,
            "shift": 0.0,
            "t_bus": 12,
            "tap": 1.0,
            "transformer": false
        }
    },
    "ne_gen": {},
    "ne_storage": {},
    "per_unit": true,
    "pm_log_level": 0,
    "pm_mip_solver": "cbc",
    "pm_mip_time_limit": Infinity,
    "pm_model": "DCMPPowerModel",
    "pm_nl_solver": "ipopt",
    "pm_nl_time_limit": Infinity,
    "pm_solver": "juniper",
    "pm_time_limit": Infinity,
    "pm_tol": 1e-08,
    "shunt": {},
    "silence": true,
    "source_version": "2.0.0",
    "sourcetype": "matpower",
    "storage": {},
    "switch": {},
    "user_defined_params": {}
}